Version 4
SHEET 1 5352 2420
WIRE 592 -720 592 -1072
WIRE 384 -640 384 -1072
WIRE 5264 -592 5232 -592
WIRE 5232 -544 5232 -592
WIRE -704 -496 -704 -544
WIRE -528 -496 -704 -496
WIRE -384 -496 -528 -496
WIRE -384 -464 -384 -496
WIRE 5264 -368 4944 -368
WIRE -384 -336 -384 -384
WIRE 1520 -336 1520 -352
WIRE 1520 -336 -384 -336
WIRE -528 -288 -528 -496
WIRE -384 -288 -528 -288
WIRE 4320 -272 4320 -688
WIRE 4320 -272 4208 -272
WIRE -384 -256 -384 -288
WIRE 1808 -224 1808 -784
WIRE 1808 -224 1664 -224
WIRE 3696 -224 2640 -224
WIRE 4144 -224 3776 -224
WIRE 592 -176 592 -640
WIRE 592 -176 224 -176
WIRE 1392 -176 592 -176
WIRE 1520 -176 1520 -336
WIRE 1584 -176 1520 -176
WIRE 4320 -176 4208 -176
WIRE 1584 -160 1584 -176
WIRE 1616 -160 1584 -160
WIRE 5264 -160 5232 -160
WIRE 1584 -144 1584 -160
WIRE 4944 -144 4944 -368
WIRE 4944 -144 4704 -144
WIRE -384 -128 -384 -176
WIRE -64 -128 -384 -128
WIRE 160 -128 16 -128
WIRE 1808 -128 1664 -128
WIRE 5232 -96 5232 -160
WIRE 288 -80 224 -80
WIRE -528 -64 -528 -288
WIRE -384 -64 -528 -64
WIRE 1392 -64 1392 -176
WIRE 1584 -64 1392 -64
WIRE -384 -16 -384 -64
WIRE 288 16 288 -80
WIRE 4944 48 4944 -144
WIRE 5264 48 4944 48
WIRE 384 64 384 -560
WIRE 384 64 224 64
WIRE 816 64 384 64
WIRE -384 112 -384 64
WIRE -80 112 -384 112
WIRE 160 112 0 112
WIRE 1808 112 1808 -128
WIRE 1808 112 1664 112
WIRE 368 160 224 160
WIRE 816 160 816 64
WIRE 1296 160 816 160
WIRE 1584 160 1584 -64
WIRE 1584 160 1568 160
WIRE 1600 160 1584 160
WIRE 1616 160 1600 160
WIRE -528 176 -528 -64
WIRE -384 176 -528 176
WIRE 1808 208 1664 208
WIRE 2640 208 2640 -224
WIRE 2640 208 1808 208
WIRE -384 224 -384 176
WIRE 4320 224 4320 -176
WIRE 4320 224 4208 224
WIRE 3680 272 3280 272
WIRE 4144 272 3760 272
WIRE 4320 320 4208 320
WIRE 4704 320 4704 -144
WIRE 4704 320 4320 320
WIRE 368 528 368 160
WIRE 1808 544 1808 208
WIRE 4320 544 4320 320
WIRE 1808 896 1808 624
WIRE 4320 896 4320 624
WIRE 2000 1152 2000 608
WIRE 2000 1152 1664 1152
WIRE 1296 1200 1296 176
WIRE 1600 1200 1296 1200
WIRE 1760 1248 1664 1248
WIRE 1760 1600 1760 1248
WIRE 1760 1600 1664 1600
WIRE -384 1648 -384 304
WIRE 1600 1648 -384 1648
WIRE 1760 1696 1664 1696
WIRE 3280 1696 3280 272
WIRE 3280 1696 1760 1696
WIRE 1760 2112 1760 1696
WIRE 1760 2416 1760 2192
FLAG 5264 -592 S1
IOPIN 5264 -592 Out
FLAG 5264 -368 S2
IOPIN 5264 -368 Out
FLAG 5264 -160 S3
IOPIN 5264 -160 Out
FLAG 5264 48 S4
IOPIN 5264 48 Out
FLAG 5232 -544 0
FLAG 5232 -96 0
FLAG 288 16 0
FLAG 368 528 0
SYMBOL csw -384 -464 R0
SYMATTR InstName I1
SYMBOL csw -384 -256 R0
SYMATTR InstName I2
SYMBOL csw -384 -16 R0
SYMATTR InstName I3
SYMBOL csw -384 224 R0
SYMATTR InstName I4
SYMBOL voltage -704 -528 R180
WINDOW 0 24 96 Left 2
WINDOW 3 24 16 Left 2
WINDOW 123 0 0 Left 0
WINDOW 39 0 0 Left 0
SYMATTR InstName V1
SYMATTR Value 5V
SYMBOL npn 160 -176 R0
SYMATTR InstName Q1
SYMBOL res 32 -144 R90
WINDOW 0 0 56 VBottom 2
WINDOW 3 32 56 VTop 2
SYMATTR InstName R1
SYMATTR Value 10K
SYMATTR SpiceLine pwr=E
SYMBOL res 16 96 R90
WINDOW 0 0 56 VBottom 2
WINDOW 3 32 56 VTop 2
SYMATTR InstName R2
SYMATTR Value 10K
SYMBOL npn 160 64 R0
SYMATTR InstName Q2
SYMBOL res 576 -736 R0
SYMATTR InstName R3
SYMATTR Value 5K
SYMBOL npn 1600 -224 R0
SYMATTR InstName Q3
SYMBOL npn 1600 112 R0
SYMATTR InstName Q4
SYMBOL res 1792 528 R0
SYMATTR InstName R6
SYMATTR Value 5K
SYMBOL npn 1600 1152 R0
SYMATTR InstName Q5
SYMBOL npn 1600 1600 R0
SYMATTR InstName Q6
SYMBOL res 1744 2096 R0
SYMATTR InstName R9
SYMATTR Value 5K
SYMBOL res 3776 256 R90
WINDOW 0 0 56 VBottom 2
WINDOW 3 32 56 VTop 2
SYMATTR InstName R10
SYMATTR Value 10K
SYMBOL res 3792 -240 R90
WINDOW 0 0 56 VBottom 2
WINDOW 3 32 56 VTop 2
SYMATTR InstName R11
SYMATTR Value 10K
SYMBOL npn 4144 -272 R0
SYMATTR InstName Q7
SYMBOL npn 4144 224 R0
SYMATTR InstName Q8
SYMBOL res 4304 528 R0
SYMATTR InstName R12
SYMATTR Value 5K
SYMBOL voltage 1808 -768 R180
WINDOW 0 24 96 Left 2
WINDOW 3 24 16 Left 2
WINDOW 123 0 0 Left 0
WINDOW 39 0 0 Left 0
SYMATTR InstName V2
SYMATTR Value 5V
SYMBOL voltage 2000 624 R180
WINDOW 0 24 96 Left 2
WINDOW 3 24 16 Left 2
WINDOW 123 0 0 Left 0
WINDOW 39 0 0 Left 0
SYMATTR InstName V3
SYMATTR Value 5V
SYMBOL voltage 4320 -672 R180
WINDOW 0 24 96 Left 2
WINDOW 3 24 16 Left 2
WINDOW 123 0 0 Left 0
WINDOW 39 0 0 Left 0
SYMATTR InstName V4
SYMATTR Value 5V
SYMBOL res 368 -656 R0
SYMATTR InstName R13
SYMATTR Value 5K
SYMBOL voltage 384 -1056 R180
WINDOW 0 24 96 Left 2
WINDOW 3 24 16 Left 2
WINDOW 123 0 0 Left 0
WINDOW 39 0 0 Left 0
SYMATTR InstName V5
SYMATTR Value 5V
SYMBOL voltage 592 -1056 R180
WINDOW 0 24 96 Left 2
WINDOW 3 24 16 Left 2
WINDOW 123 0 0 Left 0
WINDOW 39 0 0 Left 0
SYMATTR InstName V6
SYMATTR Value 5V
